@<TRIPOS>MOLECULE
MOL
   27    26     1     0     0
SMALL
rc


@<TRIPOS>ATOM
      1 O1          -0.5620     1.2270    -0.6110 os         1 MOL      -0.661907
      2 O2           1.6460    -0.3850     0.3400 os         1 MOL      -0.642828
      3 O3          -1.1500     2.4240     1.2630 o          1 MOL      -0.682332
      4 O4          -2.2060    -1.9220     0.3480 os         1 MOL      -0.448970
      5 O5           2.9940    -1.7900    -0.8680 o          1 MOL      -0.725000
      6 C1          -0.4660     3.5960    -0.7580 c3         1 MOL      -0.543244
      7 C2           3.9860    -0.2410     0.7300 c3         1 MOL      -0.629672
      8 C3          -0.7670     2.3990     0.0920 c          1 MOL       1.044713
      9 C4          -0.7150    -0.0670     0.0930 c3         1 MOL       0.138509
     10 C5           2.8700    -0.8990    -0.0240 c          1 MOL       1.101109
     11 C6           0.4480    -0.9370    -0.3180 c3         1 MOL       0.342138
     12 C7          -2.0630    -0.6460    -0.3260 c3         1 MOL      -0.003634
     13 C8          -3.4920    -2.5640     0.1350 c3         1 MOL      -0.042875
     14 H1          -0.7290     4.5000    -0.2180 hc         1 MOL       0.159377
     15 H2          -1.0190     3.5470    -1.6960 hc         1 MOL       0.159377
     16 H3           3.8540    -0.3890     1.8030 hc         1 MOL       0.175939
     17 H4           3.9840     0.8340     0.5470 hc         1 MOL       0.175939
     18 H5          -0.7050     0.1190     1.1650 h1         1 MOL       0.145084
     19 H6           0.5970    -0.9290    -1.3970 h1         1 MOL       0.049809
     20 H7           0.2910    -1.9590     0.0210 h1         1 MOL       0.049809
     21 H8          -2.1040    -0.7790    -1.4130 h1         1 MOL       0.114177
     22 H9          -2.8620     0.0390    -0.0230 h1         1 MOL       0.114177
     23 H10         -4.3070    -1.9380     0.5120 h1         1 MOL       0.091663
     24 H11         -3.6540    -2.7760    -0.9260 h1         1 MOL       0.091663
     25 H12          0.5960     3.6160    -1.0070 hc         1 MOL       0.159377
     26 H13          4.9350    -0.6660     0.4170 hc         1 MOL       0.175939
     27 H14         -3.4600    -3.4950     0.6930 h1         1 MOL       0.091663
@<TRIPOS>BOND
     1     1     8 1   
     2     1     9 1   
     3     2    10 1   
     4     2    11 1   
     5     3     8 2   
     6     4    12 1   
     7     4    13 1   
     8     5    10 2   
     9     6     8 1   
    10     6    14 1   
    11     6    15 1   
    12     6    25 1   
    13     7    10 1   
    14     7    16 1   
    15     7    17 1   
    16     7    26 1   
    17     9    11 1   
    18     9    12 1   
    19     9    18 1   
    20    11    19 1   
    21    11    20 1   
    22    12    21 1   
    23    12    22 1   
    24    13    23 1   
    25    13    24 1   
    26    13    27 1   
@<TRIPOS>SUBSTRUCTURE
     1 MOL         1 TEMP              0 ****  ****    0 ROOT
