@<TRIPOS>MOLECULE
MOL
   16    15     1     0     0
SMALL
rc


@<TRIPOS>ATOM
      1 O1          -1.7470    -0.5190    -0.0000 os         1 MOL      -0.452621
      2 C1          -3.0500     0.1180     0.0000 c3         1 MOL       0.034380
      3 C2          -0.6330     0.4160    -0.0000 c3         1 MOL       0.215555
      4 C3           0.6330    -0.4160    -0.0000 c3         1 MOL       0.215555
      5 O2           1.7470     0.5190    -0.0000 os         1 MOL      -0.452621
      6 C4           3.0500    -0.1180     0.0000 c3         1 MOL       0.034380
      7 H1          -3.7820    -0.6850     0.0000 h1         1 MOL       0.058158
      8 H2          -3.1860     0.7370    -0.8930 h1         1 MOL       0.058158
      9 H3          -3.1860     0.7370     0.8930 h1         1 MOL       0.058158
     10 H4          -0.6690     1.0530     0.8900 h1         1 MOL       0.014107
     11 H5          -0.6690     1.0530    -0.8900 h1         1 MOL       0.014107
     12 H6           0.6690    -1.0530    -0.8900 h1         1 MOL       0.014107
     13 H7           0.6690    -1.0530     0.8900 h1         1 MOL       0.014107
     14 H8           3.7820     0.6850     0.0000 h1         1 MOL       0.058158
     15 H9           3.1860    -0.7370    -0.8930 h1         1 MOL       0.058158
     16 H10          3.1860    -0.7370     0.8930 h1         1 MOL       0.058158
@<TRIPOS>BOND
     1     1     2 1   
     2     1     3 1   
     3     2     7 1   
     4     2     8 1   
     5     2     9 1   
     6     3     4 1   
     7     3    10 1   
     8     3    11 1   
     9     4     5 1   
    10     4    12 1   
    11     4    13 1   
    12     5     6 1   
    13     6    14 1   
    14     6    15 1   
    15     6    16 1   
@<TRIPOS>SUBSTRUCTURE
     1 MOL         1 TEMP              0 ****  ****    0 ROOT
