@<TRIPOS>MOLECULE
MOL
   53    52     1     0     0
SMALL
rc


@<TRIPOS>ATOM
      1 O1          -6.1740     0.4070     0.2860 os         1 MOL      -0.687950
      2 O2          -6.6110    -1.4540    -0.9880 o          1 MOL      -0.716877
      3 C1           1.7590    -0.0090    -0.2590 c3         1 MOL       0.068288
      4 C2           3.1130    -0.5450     0.2360 c3         1 MOL      -0.030576
      5 C3           0.5530    -0.8140     0.2550 c3         1 MOL       0.035621
      6 C4           4.3170     0.2680    -0.2680 c3         1 MOL       0.056220
      7 C5          -0.8000    -0.2780    -0.2430 c3         1 MOL      -0.053351
      8 C6           5.6720    -0.2680     0.2260 c3         1 MOL       0.054899
      9 C7          -2.0060    -1.0750     0.2810 c3         1 MOL       0.045952
     10 C8           6.8760     0.5510    -0.2700 c3         1 MOL      -0.004489
     11 C9          -3.3530    -0.5370    -0.2290 c3         1 MOL       0.152922
     12 C10          8.2300     0.0150     0.2230 c3         1 MOL       0.002714
     13 C11         -4.5550    -1.3420     0.3180 c3         1 MOL      -0.412594
     14 C12          9.4340     0.8370    -0.2680 c3         1 MOL       0.163291
     15 C13         -5.8760    -0.8440    -0.2030 c          1 MOL       1.048947
     16 C14         -7.4410     1.0720    -0.1580 c3         1 MOL       0.599341
     17 C15         10.7830     0.2930     0.2280 c3         1 MOL      -0.181397
     18 C16         -7.1480     2.5640    -0.1230 c3         1 MOL      -0.441551
     19 C17         -8.5720     0.6350     0.7660 c3         1 MOL      -0.441551
     20 H1           1.6510     1.0380     0.0510 hc         1 MOL      -0.017789
     21 H2           1.7500    -0.0060    -1.3560 hc         1 MOL      -0.017789
     22 H3           3.1180    -0.5560     1.3320 hc         1 MOL      -0.002948
     23 H4           3.2250    -1.5890    -0.0810 hc         1 MOL      -0.002948
     24 H5           0.6610    -1.8620    -0.0520 hc         1 MOL      -0.012782
     25 H6           0.5600    -0.8140     1.3510 hc         1 MOL      -0.012782
     26 H7           4.3120     0.2800    -1.3650 hc         1 MOL      -0.019733
     27 H8           4.2050     1.3120     0.0500 hc         1 MOL      -0.019733
     28 H9          -0.9040     0.7720     0.0560 hc         1 MOL       0.003324
     29 H10         -0.8100    -0.2870    -1.3400 hc         1 MOL       0.003324
     30 H11          5.6750    -0.2850     1.3230 hc         1 MOL      -0.019257
     31 H12          5.7870    -1.3100    -0.0970 hc         1 MOL      -0.019257
     32 H13         -1.8990    -2.1260    -0.0120 hc         1 MOL      -0.001643
     33 H14         -2.0010    -1.0580     1.3770 hc         1 MOL      -0.001643
     34 H15          6.8730     0.5700    -1.3670 hc         1 MOL      -0.010824
     35 H16          6.7610     1.5930     0.0540 hc         1 MOL      -0.010824
     36 H17         -3.4660     0.5110     0.0600 hc         1 MOL      -0.014256
     37 H18         -3.3680    -0.5690    -1.3230 hc         1 MOL      -0.014256
     38 H19          8.2330    -0.0070     1.3200 hc         1 MOL      -0.007469
     39 H20          8.3480    -1.0260    -0.1030 hc         1 MOL      -0.007469
     40 H21         -4.4690    -2.3910     0.0350 hc         1 MOL       0.103237
     41 H22         -4.5630    -1.2800     1.4100 hc         1 MOL       0.103237
     42 H23          9.4310     0.8590    -1.3640 hc         1 MOL      -0.034258
     43 H24          9.3170     1.8760     0.0590 hc         1 MOL      -0.034258
     44 H25         -7.6310     0.7290    -1.1750 h1         1 MOL       0.011788
     45 H26         11.6160     0.8980    -0.1370 hc         1 MOL       0.035701
     46 H27         10.9430    -0.7330    -0.1130 hc         1 MOL       0.035701
     47 H28         10.8280     0.2890     1.3200 hc         1 MOL       0.035701
     48 H29         -6.9040     2.8860     0.8900 hc         1 MOL       0.115341
     49 H30         -8.3510     0.9090     1.7990 hc         1 MOL       0.115341
     50 H31         -8.7240    -0.4430     0.7110 hc         1 MOL       0.115341
     51 H32         -6.3100     2.8100    -0.7750 hc         1 MOL       0.115341
     52 H33         -8.0230     3.1240    -0.4620 hc         1 MOL       0.115341
     53 H34         -9.5050     1.1230     0.4720 hc         1 MOL       0.115341
@<TRIPOS>BOND
     1     1    15 1   
     2     1    16 1   
     3     2    15 2   
     4     3     4 1   
     5     3     5 1   
     6     3    20 1   
     7     3    21 1   
     8     4     6 1   
     9     4    22 1   
    10     4    23 1   
    11     5     7 1   
    12     5    24 1   
    13     5    25 1   
    14     6     8 1   
    15     6    26 1   
    16     6    27 1   
    17     7     9 1   
    18     7    28 1   
    19     7    29 1   
    20     8    10 1   
    21     8    30 1   
    22     8    31 1   
    23     9    11 1   
    24     9    32 1   
    25     9    33 1   
    26    10    12 1   
    27    10    34 1   
    28    10    35 1   
    29    11    13 1   
    30    11    36 1   
    31    11    37 1   
    32    12    14 1   
    33    12    38 1   
    34    12    39 1   
    35    13    15 1   
    36    13    40 1   
    37    13    41 1   
    38    14    17 1   
    39    14    42 1   
    40    14    43 1   
    41    16    18 1   
    42    16    19 1   
    43    16    44 1   
    44    17    45 1   
    45    17    46 1   
    46    17    47 1   
    47    18    48 1   
    48    18    51 1   
    49    18    52 1   
    50    19    49 1   
    51    19    50 1   
    52    19    53 1   
@<TRIPOS>SUBSTRUCTURE
     1 MOL         1 TEMP              0 ****  ****    0 ROOT
