@<TRIPOS>MOLECULE
MOL
   47    46     1     0     0
SMALL
rc


@<TRIPOS>ATOM
      1 O1           7.8460    -0.6870    -0.0000 os         1 MOL      -0.625200
      2 O2           6.8780     1.3890     0.0000 o          1 MOL      -0.741447
      3 C1          -0.9230     0.3790    -0.0000 c3         1 MOL       0.139746
      4 C2          -2.2270    -0.4370    -0.0000 c3         1 MOL      -0.025390
      5 C3           0.3460    -0.4910    -0.0000 c3         1 MOL       0.127057
      6 C4          -3.4970     0.4310    -0.0000 c3         1 MOL       0.062085
      7 C5           1.6500     0.3250     0.0000 c3         1 MOL      -0.174526
      8 C6          -4.8000    -0.3860     0.0000 c3         1 MOL       0.144390
      9 C7           2.9170    -0.5460     0.0000 c3         1 MOL       0.134883
     10 C8          -6.0700     0.4820    -0.0000 c3         1 MOL      -0.005247
     11 C9           4.2170     0.2750     0.0000 c3         1 MOL       0.318971
     12 C10         -7.3730    -0.3350    -0.0000 c3         1 MOL       0.015961
     13 C11         -8.6450     0.5320     0.0000 c3         1 MOL       0.224630
     14 C12          5.4670    -0.6130     0.0000 c3         1 MOL      -0.781627
     15 C13         -9.9410    -0.2930    -0.0000 c3         1 MOL      -0.267964
     16 C14          6.7590     0.1610     0.0000 c          1 MOL       1.256401
     17 C15          9.1810    -0.0690    -0.0000 c3         1 MOL       0.031078
     18 H1          -0.9090     1.0370    -0.8770 hc         1 MOL      -0.040980
     19 H2          -0.9090     1.0380     0.8770 hc         1 MOL      -0.040980
     20 H3          -2.2400    -1.0960    -0.8770 hc         1 MOL      -0.016561
     21 H4          -2.2410    -1.0950     0.8770 hc         1 MOL      -0.016561
     22 H5           0.3310    -1.1490     0.8770 hc         1 MOL      -0.042349
     23 H6           0.3320    -1.1490    -0.8770 hc         1 MOL      -0.042349
     24 H7          -3.4830     1.0900     0.8770 hc         1 MOL      -0.030747
     25 H8          -3.4840     1.0900    -0.8770 hc         1 MOL      -0.030747
     26 H9           1.6650     0.9830    -0.8770 hc         1 MOL       0.018356
     27 H10          1.6640     0.9830     0.8770 hc         1 MOL       0.018356
     28 H11         -4.8130    -1.0440    -0.8770 hc         1 MOL      -0.044981
     29 H12         -4.8130    -1.0440     0.8770 hc         1 MOL      -0.044981
     30 H13          2.9010    -1.2050     0.8780 hc         1 MOL      -0.022427
     31 H14          2.9010    -1.2050    -0.8770 hc         1 MOL      -0.022427
     32 H15         -6.0580     1.1410     0.8770 hc         1 MOL      -0.021487
     33 H16         -6.0580     1.1410    -0.8770 hc         1 MOL      -0.021487
     34 H17          4.2390     0.9330    -0.8730 hc         1 MOL      -0.046894
     35 H18          4.2390     0.9330     0.8730 hc         1 MOL      -0.046894
     36 H19         -7.3870    -0.9940    -0.8770 hc         1 MOL      -0.018603
     37 H20         -7.3870    -0.9940     0.8770 hc         1 MOL      -0.018603
     38 H21         -8.6310     1.1900     0.8760 hc         1 MOL      -0.045996
     39 H22         -8.6310     1.1900    -0.8760 hc         1 MOL      -0.045996
     40 H23          5.4750    -1.2750     0.8720 hc         1 MOL       0.176477
     41 H24          5.4740    -1.2750    -0.8710 hc         1 MOL       0.176477
     42 H25        -10.8230     0.3500     0.0000 hc         1 MOL       0.056479
     43 H26         -9.9980    -0.9370     0.8820 hc         1 MOL       0.056479
     44 H27         -9.9980    -0.9360    -0.8830 hc         1 MOL       0.056479
     45 H28          9.3100     0.5450     0.8890 h1         1 MOL       0.089715
     46 H29          9.8710    -0.9050    -0.0010 h1         1 MOL       0.089715
     47 H30          9.3090     0.5460    -0.8890 h1         1 MOL       0.089715
@<TRIPOS>BOND
     1     1    16 1   
     2     1    17 1   
     3     2    16 2   
     4     3     4 1   
     5     3     5 1   
     6     3    18 1   
     7     3    19 1   
     8     4     6 1   
     9     4    20 1   
    10     4    21 1   
    11     5     7 1   
    12     5    22 1   
    13     5    23 1   
    14     6     8 1   
    15     6    24 1   
    16     6    25 1   
    17     7     9 1   
    18     7    26 1   
    19     7    27 1   
    20     8    10 1   
    21     8    28 1   
    22     8    29 1   
    23     9    11 1   
    24     9    30 1   
    25     9    31 1   
    26    10    12 1   
    27    10    32 1   
    28    10    33 1   
    29    11    14 1   
    30    11    34 1   
    31    11    35 1   
    32    12    13 1   
    33    12    36 1   
    34    12    37 1   
    35    13    15 1   
    36    13    38 1   
    37    13    39 1   
    38    14    16 1   
    39    14    40 1   
    40    14    41 1   
    41    15    42 1   
    42    15    43 1   
    43    15    44 1   
    44    17    45 1   
    45    17    46 1   
    46    17    47 1   
@<TRIPOS>SUBSTRUCTURE
     1 MOL         1 TEMP              0 ****  ****    0 ROOT
